1AZ8_lig_vina_out.pdbqt
 OpenBabel05312217063D

 32 33  0  0  1  0  0  0  0  0999 V2000
   29.6690   11.5210   17.7830 C   0  0  1  0  0  3  0  0  0  0  0  0
   29.2970   12.9270   17.8990 C   0  0  0  0  0  0  0  0  0  0  0  0
   28.8700   13.5410   19.0920 C   0  0  0  0  0  3  0  0  0  0  0  0
   28.5350   14.8950   19.0990 C   0  0  0  0  0  3  0  0  0  0  0  0
   28.6290   15.6170   17.9140 C   0  0  0  0  0  3  0  0  0  0  0  0
   29.0970   15.0050   16.7470 C   0  0  0  0  0  0  0  0  0  0  0  0
   29.4230   13.6670   16.7390 C   0  0  0  0  0  3  0  0  0  0  0  0
   29.2200   15.7810   15.4780 C   0  0  0  0  0  0  0  0  0  0  0  0
   30.0140   15.3200   14.5550 N   0  0  0  0  0  0  0  0  0  0  0  0
   30.4890   14.4690   14.6930 H   0  0  0  0  0  0  0  0  0  0  0  0
   28.6020   16.9180   15.2640 N   0  0  0  0  0  0  0  0  0  0  0  0
   28.0990   17.3500   15.9920 H   0  0  0  0  0  0  0  0  0  0  0  0
   28.6400   17.3390   14.3750 H   0  0  0  0  0  0  0  0  0  0  0  0
   31.0810   11.3980   18.3220 C   0  0  0  0  0  2  0  0  0  0  0  0
   31.5470    9.9700   18.5090 C   0  0  0  0  0  2  0  0  0  0  0  0
   33.0110    9.9030   18.1400 C   0  0  0  0  0  0  0  0  0  0  0  0
   33.3710   10.1040   16.8120 C   0  0  0  0  0  3  0  0  0  0  0  0
   34.7220   10.1030   16.4570 C   0  0  0  0  0  3  0  0  0  0  0  0
   35.7320    9.8390   17.4040 C   0  0  0  0  0  0  0  0  0  0  0  0
   35.3560    9.6060   18.7380 C   0  0  0  0  0  3  0  0  0  0  0  0
   34.0080    9.6630   19.1020 C   0  0  0  0  0  3  0  0  0  0  0  0
   37.1870    9.7760   16.9530 C   0  0  0  0  0  0  0  0  0  0  0  0
   38.0040   10.7780   17.2150 N   0  0  0  0  0  0  0  0  0  0  0  0
   37.6720   11.5720   17.6920 H   0  0  0  0  0  0  0  0  0  0  0  0
   37.6860    8.7220   16.3040 N   0  0  0  0  0  0  0  0  0  0  0  0
   38.6590    8.5720   16.2820 H   0  0  0  0  0  0  0  0  0  0  0  0
   37.0810    8.0930   15.8470 H   0  0  0  0  0  0  0  0  0  0  0  0
   28.6700   10.5310   18.4280 C   0  0  0  0  0  2  0  0  0  0  0  0
   27.1910   10.6800   18.0250 C   0  0  0  0  0  0  0  0  0  0  0  0
   26.8600   10.6120   16.8410 O   0  0  0  0  0  0  0  0  0  0  0  0
   26.2610   10.8370   19.0300 O   0  0  0  0  0  0  0  0  0  0  0  0
   26.5530   10.9210   20.4210 C   0  0  0  0  0  1  0  0  0  0  0  0
  1  2  1  0  0  0  0
  1 14  1  1  0  0  0
  1 28  1  0  0  0  0
  2  3  1  0  0  0  0
  3  4  2  0  0  0  0
  5  4  1  0  0  0  0
  6  5  2  0  0  0  0
  7  6  1  0  0  0  0
  7  2  2  0  0  0  0
  8  6  1  0  0  0  0
  9 10  1  0  0  0  0
  9  8  2  0  0  0  0
 11  8  1  0  0  0  0
 11 12  1  0  0  0  0
 13 11  1  0  0  0  0
 14 15  1  0  0  0  0
 16 15  1  0  0  0  0
 16 21  1  0  0  0  0
 17 16  2  0  0  0  0
 18 17  1  0  0  0  0
 18 19  2  0  0  0  0
 19 20  1  0  0  0  0
 20 21  2  0  0  0  0
 22 23  2  0  0  0  0
 22 19  1  0  0  0  0
 23 24  1  0  0  0  0
 25 22  1  0  0  0  0
 26 25  1  0  0  0  0
 27 25  1  0  0  0  0
 29 28  1  0  0  0  0
 29 31  1  0  0  0  0
 30 29  2  0  0  0  0
 31 32  1  0  0  0  0
M  END
>  <Pose>
1

>  <Score>
-7.485

$$$$
1AZ8_lig_vina_out.pdbqt
 OpenBabel05312217063D

 32 33  0  0  1  0  0  0  0  0999 V2000
   29.7830   11.4510   17.6980 C   0  0  1  0  0  3  0  0  0  0  0  0
   29.3400   12.8310   17.8570 C   0  0  0  0  0  0  0  0  0  0  0  0
   28.8270   13.3690   19.0530 C   0  0  0  0  0  3  0  0  0  0  0  0
   28.4280   14.7040   19.1030 C   0  0  0  0  0  3  0  0  0  0  0  0
   28.5450   15.4840   17.9590 C   0  0  0  0  0  3  0  0  0  0  0  0
   29.0990   14.9500   16.7910 C   0  0  0  0  0  0  0  0  0  0  0  0
   29.4870   13.6290   16.7400 C   0  0  0  0  0  3  0  0  0  0  0  0
   29.2470   15.7890   15.5660 C   0  0  0  0  0  0  0  0  0  0  0  0
   30.0730   15.3850   14.6440 N   0  0  0  0  0  0  0  0  0  0  0  0
   30.5550   14.5340   14.7540 H   0  0  0  0  0  0  0  0  0  0  0  0
   28.6190   16.9280   15.3900 N   0  0  0  0  0  0  0  0  0  0  0  0
   27.8330   16.9710   14.8000 H   0  0  0  0  0  0  0  0  0  0  0  0
   28.9350   17.7400   15.8500 H   0  0  0  0  0  0  0  0  0  0  0  0
   31.2110   11.3890   18.2060 C   0  0  0  0  0  2  0  0  0  0  0  0
   31.7090    9.9860   18.4770 C   0  0  0  0  0  2  0  0  0  0  0  0
   33.1460    9.9010   18.0160 C   0  0  0  0  0  0  0  0  0  0  0  0
   34.1530   10.2180   18.9200 C   0  0  0  0  0  3  0  0  0  0  0  0
   35.4900   10.0930   18.5340 C   0  0  0  0  0  3  0  0  0  0  0  0
   35.8440    9.7150   17.2240 C   0  0  0  0  0  0  0  0  0  0  0  0
   34.8190    9.4270   16.3070 C   0  0  0  0  0  3  0  0  0  0  0  0
   33.4830    9.4980   16.7120 C   0  0  0  0  0  3  0  0  0  0  0  0
   37.3170    9.6640   16.8300 C   0  0  0  0  0  0  0  0  0  0  0  0
   38.1400   10.6150   17.2260 N   0  0  0  0  0  0  0  0  0  0  0  0
   37.8030   11.3650   17.7650 H   0  0  0  0  0  0  0  0  0  0  0  0
   37.8240    8.6680   16.1000 N   0  0  0  0  0  0  0  0  0  0  0  0
   37.7120    8.6680   15.1210 H   0  0  0  0  0  0  0  0  0  0  0  0
   38.3110    7.9340   16.5400 H   0  0  0  0  0  0  0  0  0  0  0  0
   28.8520   10.3920   18.3370 C   0  0  0  0  0  2  0  0  0  0  0  0
   27.6510    9.9290   17.4910 C   0  0  0  0  0  0  0  0  0  0  0  0
   26.8330   10.7480   17.0700 O   0  0  0  0  0  0  0  0  0  0  0  0
   27.5570    8.5880   17.1840 O   0  0  0  0  0  0  0  0  0  0  0  0
   26.4970    7.9790   16.4540 C   0  0  0  0  0  1  0  0  0  0  0  0
  1  2  1  0  0  0  0
  1 14  1  1  0  0  0
  1 28  1  0  0  0  0
  2  3  1  0  0  0  0
  3  4  2  0  0  0  0
  5  4  1  0  0  0  0
  6  5  2  0  0  0  0
  7  6  1  0  0  0  0
  7  2  2  0  0  0  0
  8  6  1  0  0  0  0
  9 10  1  0  0  0  0
  9  8  2  0  0  0  0
 11  8  1  0  0  0  0
 11 13  1  0  0  0  0
 12 11  1  0  0  0  0
 14 15  1  0  0  0  0
 16 15  1  0  0  0  0
 16 17  1  0  0  0  0
 18 17  2  0  0  0  0
 19 18  1  0  0  0  0
 20 21  1  0  0  0  0
 20 19  2  0  0  0  0
 21 16  2  0  0  0  0
 22 19  1  0  0  0  0
 22 23  2  0  0  0  0
 23 24  1  0  0  0  0
 25 27  1  0  0  0  0
 25 22  1  0  0  0  0
 26 25  1  0  0  0  0
 29 28  1  0  0  0  0
 30 29  2  0  0  0  0
 31 29  1  0  0  0  0
 32 31  1  0  0  0  0
M  END
>  <Pose>
2

>  <Score>
-7.165

$$$$
1AZ8_lig_vina_out.pdbqt
 OpenBabel05312217063D

 32 33  0  0  1  0  0  0  0  0999 V2000
   28.6880   11.4730   17.8850 C   0  0  1  0  0  3  0  0  0  0  0  0
   28.5370   12.9210   17.9800 C   0  0  0  0  0  0  0  0  0  0  0  0
   27.9970   13.5930   19.0940 C   0  0  0  0  0  3  0  0  0  0  0  0
   27.8940   14.9840   19.0870 C   0  0  0  0  0  3  0  0  0  0  0  0
   28.3290   15.6840   17.9680 C   0  0  0  0  0  3  0  0  0  0  0  0
   28.9040   15.0080   16.8880 C   0  0  0  0  0  0  0  0  0  0  0  0
   29.0010   13.6340   16.8930 C   0  0  0  0  0  3  0  0  0  0  0  0
   29.3930   15.7570   15.6940 C   0  0  0  0  0  0  0  0  0  0  0  0
   30.2460   15.1660   14.9080 N   0  0  0  0  0  0  0  0  0  0  0  0
   30.5280   14.2410   15.0940 H   0  0  0  0  0  0  0  0  0  0  0  0
   29.0370   16.9910   15.4200 N   0  0  0  0  0  0  0  0  0  0  0  0
   29.7210   17.6940   15.3440 H   0  0  0  0  0  0  0  0  0  0  0  0
   28.0870   17.2110   15.2890 H   0  0  0  0  0  0  0  0  0  0  0  0
   27.3020   10.9050   17.6480 C   0  0  0  0  0  2  0  0  0  0  0  0
   27.2940    9.5980   16.8830 C   0  0  0  0  0  2  0  0  0  0  0  0
   25.8780    9.0700   16.8720 C   0  0  0  0  0  0  0  0  0  0  0  0
   25.1650    9.1080   15.6790 C   0  0  0  0  0  3  0  0  0  0  0  0
   23.8740    8.5740   15.6310 C   0  0  0  0  0  3  0  0  0  0  0  0
   23.2500    8.0550   16.7830 C   0  0  0  0  0  0  0  0  0  0  0  0
   23.9670    8.0500   17.9910 C   0  0  0  0  0  3  0  0  0  0  0  0
   25.2790    8.5320   18.0250 C   0  0  0  0  0  3  0  0  0  0  0  0
   21.8140    7.5510   16.6950 C   0  0  0  0  0  0  0  0  0  0  0  0
   21.0730    7.8450   15.6440 N   0  0  0  0  0  0  0  0  0  0  0  0
   21.4430    8.3990   14.9200 H   0  0  0  0  0  0  0  0  0  0  0  0
   21.2650    6.7960   17.6490 N   0  0  0  0  0  0  0  0  0  0  0  0
   21.3000    5.8140   17.5820 H   0  0  0  0  0  0  0  0  0  0  0  0
   20.8250    7.2210   18.4210 H   0  0  0  0  0  0  0  0  0  0  0  0
   29.7390   10.9960   16.8530 C   0  0  0  0  0  2  0  0  0  0  0  0
   31.0000   10.3160   17.4160 C   0  0  0  0  0  0  0  0  0  0  0  0
   31.9570   10.0730   16.6800 O   0  0  0  0  0  0  0  0  0  0  0  0
   31.0370   10.0410   18.7670 O   0  0  0  0  0  0  0  0  0  0  0  0
   30.6870    8.7990   19.3680 C   0  0  0  0  0  1  0  0  0  0  0  0
  1 28  1  6  0  0  0
  1  2  1  0  0  0  0
  2  3  1  0  0  0  0
  4  3  2  0  0  0  0
  5  4  1  0  0  0  0
  6  7  1  0  0  0  0
  6  5  2  0  0  0  0
  7  2  2  0  0  0  0
  8  6  1  0  0  0  0
  9 10  1  0  0  0  0
  9  8  2  0  0  0  0
 11  8  1  0  0  0  0
 12 11  1  0  0  0  0
 13 11  1  0  0  0  0
 14  1  1  0  0  0  0
 15 14  1  0  0  0  0
 16 15  1  0  0  0  0
 16 21  1  0  0  0  0
 17 16  2  0  0  0  0
 18 17  1  0  0  0  0
 18 19  2  0  0  0  0
 19 20  1  0  0  0  0
 20 21  2  0  0  0  0
 22 19  1  0  0  0  0
 22 25  1  0  0  0  0
 23 22  2  0  0  0  0
 24 23  1  0  0  0  0
 25 27  1  0  0  0  0
 26 25  1  0  0  0  0
 28 29  1  0  0  0  0
 29 31  1  0  0  0  0
 30 29  2  0  0  0  0
 31 32  1  0  0  0  0
M  END
>  <Pose>
3

>  <Score>
-7.083

$$$$
1AZ8_lig_vina_out.pdbqt
 OpenBabel05312217063D

 32 33  0  0  1  0  0  0  0  0999 V2000
   28.7530   11.4790   17.9050 C   0  0  1  0  0  3  0  0  0  0  0  0
   28.6280   12.9310   17.9740 C   0  0  0  0  0  0  0  0  0  0  0  0
   28.1400   13.6350   19.0920 C   0  0  0  0  0  3  0  0  0  0  0  0
   28.0580   15.0270   19.0600 C   0  0  0  0  0  3  0  0  0  0  0  0
   28.4610   15.6970   17.9110 C   0  0  0  0  0  3  0  0  0  0  0  0
   28.9860   14.9890   16.8250 C   0  0  0  0  0  0  0  0  0  0  0  0
   29.0620   13.6140   16.8550 C   0  0  0  0  0  3  0  0  0  0  0  0
   29.4410   15.7050   15.5970 C   0  0  0  0  0  0  0  0  0  0  0  0
   28.9840   16.9060   15.3860 N   0  0  0  0  0  0  0  0  0  0  0  0
   28.3810   17.3260   16.0410 H   0  0  0  0  0  0  0  0  0  0  0  0
   30.2420   15.1720   14.7050 N   0  0  0  0  0  0  0  0  0  0  0  0
   30.4880   15.6800   13.8990 H   0  0  0  0  0  0  0  0  0  0  0  0
   30.5980   14.2650   14.8430 H   0  0  0  0  0  0  0  0  0  0  0  0
   27.3580   10.9320   17.6750 C   0  0  0  0  0  2  0  0  0  0  0  0
   26.8410   10.0670   18.8050 C   0  0  0  0  0  2  0  0  0  0  0  0
   25.6330    9.3110   18.3010 C   0  0  0  0  0  0  0  0  0  0  0  0
   24.8770    8.5830   19.2140 C   0  0  0  0  0  3  0  0  0  0  0  0
   23.7240    7.9230   18.7830 C   0  0  0  0  0  3  0  0  0  0  0  0
   23.3410    7.9230   17.4260 C   0  0  0  0  0  0  0  0  0  0  0  0
   24.1280    8.6360   16.5060 C   0  0  0  0  0  3  0  0  0  0  0  0
   25.2500    9.3430   16.9490 C   0  0  0  0  0  3  0  0  0  0  0  0
   22.1150    7.1260   16.9930 C   0  0  0  0  0  0  0  0  0  0  0  0
   21.2190    6.7520   17.8870 N   0  0  0  0  0  0  0  0  0  0  0  0
   21.3480    6.9770   18.8360 H   0  0  0  0  0  0  0  0  0  0  0  0
   21.8940    6.7970   15.7180 N   0  0  0  0  0  0  0  0  0  0  0  0
   22.3920    7.2500   14.9990 H   0  0  0  0  0  0  0  0  0  0  0  0
   21.2330    6.1020   15.4970 H   0  0  0  0  0  0  0  0  0  0  0  0
   29.7970   10.9660   16.8840 C   0  0  0  0  0  2  0  0  0  0  0  0
   31.1470   10.4920   17.4550 C   0  0  0  0  0  0  0  0  0  0  0  0
   31.2950   10.3570   18.6700 O   0  0  0  0  0  0  0  0  0  0  0  0
   32.1500   10.1790   16.5630 O   0  0  0  0  0  0  0  0  0  0  0  0
   33.1220    9.1530   16.7380 C   0  0  0  0  0  1  0  0  0  0  0  0
  1 28  1  6  0  0  0
  1  2  1  0  0  0  0
  2  3  1  0  0  0  0
  4  3  2  0  0  0  0
  5  4  1  0  0  0  0
  6  7  1  0  0  0  0
  6  5  2  0  0  0  0
  7  2  2  0  0  0  0
  8  6  1  0  0  0  0
  9  8  2  0  0  0  0
  9 10  1  0  0  0  0
 11 13  1  0  0  0  0
 11  8  1  0  0  0  0
 12 11  1  0  0  0  0
 14  1  1  0  0  0  0
 14 15  1  0  0  0  0
 16 15  1  0  0  0  0
 16 17  1  0  0  0  0
 18 17  2  0  0  0  0
 19 18  1  0  0  0  0
 20 21  1  0  0  0  0
 20 19  2  0  0  0  0
 21 16  2  0  0  0  0
 22 19  1  0  0  0  0
 22 23  2  0  0  0  0
 23 24  1  0  0  0  0
 25 22  1  0  0  0  0
 26 25  1  0  0  0  0
 27 25  1  0  0  0  0
 28 29  1  0  0  0  0
 29 30  2  0  0  0  0
 31 32  1  0  0  0  0
 31 29  1  0  0  0  0
M  END
>  <Pose>
4

>  <Score>
-6.999

$$$$
1AZ8_lig_vina_out.pdbqt
 OpenBabel05312217063D

 32 33  0  0  1  0  0  0  0  0999 V2000
   31.2510    9.6620   18.5070 C   0  0  1  0  0  3  0  0  0  0  0  0
   32.6940    9.4580   18.5890 C   0  0  0  0  0  0  0  0  0  0  0  0
   33.3290    8.6570   19.5570 C   0  0  0  0  0  3  0  0  0  0  0  0
   34.7180    8.5260   19.5530 C   0  0  0  0  0  3  0  0  0  0  0  0
   35.4520    9.1980   18.5830 C   0  0  0  0  0  3  0  0  0  0  0  0
   34.8050    9.9530   17.6000 C   0  0  0  0  0  0  0  0  0  0  0  0
   33.4340   10.0870   17.6080 C   0  0  0  0  0  3  0  0  0  0  0  0
   35.5880   10.6580   16.5430 C   0  0  0  0  0  0  0  0  0  0  0  0
   35.1820   10.5550   15.3100 N   0  0  0  0  0  0  0  0  0  0  0  0
   34.3640   10.0480   15.1020 H   0  0  0  0  0  0  0  0  0  0  0  0
   36.6820   11.3400   16.7880 N   0  0  0  0  0  0  0  0  0  0  0  0
   37.5000   11.1590   16.2720 H   0  0  0  0  0  0  0  0  0  0  0  0
   36.6830   12.0320   17.4880 H   0  0  0  0  0  0  0  0  0  0  0  0
   31.0310   11.1520   18.3350 C   0  0  0  0  0  2  0  0  0  0  0  0
   29.8170   11.6840   19.0660 C   0  0  0  0  0  2  0  0  0  0  0  0
   29.3940   12.9720   18.3960 C   0  0  0  0  0  0  0  0  0  0  0  0
   29.9390   13.2840   17.1550 C   0  0  0  0  0  3  0  0  0  0  0  0
   29.5210   14.4400   16.4910 C   0  0  0  0  0  3  0  0  0  0  0  0
   28.6060   15.3360   17.0790 C   0  0  0  0  0  0  0  0  0  0  0  0
   28.0840   15.0280   18.3470 C   0  0  0  0  0  3  0  0  0  0  0  0
   28.4610   13.8420   18.9850 C   0  0  0  0  0  3  0  0  0  0  0  0
   28.2380   16.6210   16.3460 C   0  0  0  0  0  0  0  0  0  0  0  0
   29.0170   17.0820   15.3860 N   0  0  0  0  0  0  0  0  0  0  0  0
   29.8440   16.6030   15.1510 H   0  0  0  0  0  0  0  0  0  0  0  0
   27.1270   17.3080   16.6270 N   0  0  0  0  0  0  0  0  0  0  0  0
   26.8840   17.4890   17.5640 H   0  0  0  0  0  0  0  0  0  0  0  0
   26.5520   17.6330   15.8970 H   0  0  0  0  0  0  0  0  0  0  0  0
   30.5340    8.8010   17.4390 C   0  0  0  0  0  2  0  0  0  0  0  0
   29.0860    8.3790   17.7500 C   0  0  0  0  0  0  0  0  0  0  0  0
   28.8620    7.3760   18.4280 O   0  0  0  0  0  0  0  0  0  0  0  0
   28.0660    9.1870   17.2920 O   0  0  0  0  0  0  0  0  0  0  0  0
   26.8120    9.3810   17.9370 C   0  0  0  0  0  1  0  0  0  0  0  0
  1 28  1  6  0  0  0
  1  2  1  0  0  0  0
  2  3  1  0  0  0  0
  4  3  2  0  0  0  0
  5  4  1  0  0  0  0
  6  7  1  0  0  0  0
  6  5  2  0  0  0  0
  7  2  2  0  0  0  0
  8 11  1  0  0  0  0
  8  6  1  0  0  0  0
  9  8  2  0  0  0  0
 10  9  1  0  0  0  0
 11 13  1  0  0  0  0
 12 11  1  0  0  0  0
 14  1  1  0  0  0  0
 14 15  1  0  0  0  0
 16 21  1  0  0  0  0
 16 15  1  0  0  0  0
 17 16  2  0  0  0  0
 18 19  2  0  0  0  0
 18 17  1  0  0  0  0
 19 20  1  0  0  0  0
 20 21  2  0  0  0  0
 22 25  1  0  0  0  0
 22 19  1  0  0  0  0
 23 22  2  0  0  0  0
 24 23  1  0  0  0  0
 25 26  1  0  0  0  0
 27 25  1  0  0  0  0
 28 29  1  0  0  0  0
 29 30  2  0  0  0  0
 31 29  1  0  0  0  0
 31 32  1  0  0  0  0
M  END
>  <Pose>
5

>  <Score>
-6.618

$$$$
1AZ8_lig_vina_out.pdbqt
 OpenBabel05312217063D

 32 33  0  0  1  0  0  0  0  0999 V2000
   27.8040   10.1710   20.3000 C   0  0  1  0  0  3  0  0  0  0  0  0
   26.8900    9.7800   19.2330 C   0  0  0  0  0  0  0  0  0  0  0  0
   27.0960   10.0560   17.8680 C   0  0  0  0  0  3  0  0  0  0  0  0
   26.1600    9.6400   16.9210 C   0  0  0  0  0  3  0  0  0  0  0  0
   25.0290    8.9560   17.3520 C   0  0  0  0  0  3  0  0  0  0  0  0
   24.8590    8.6490   18.7050 C   0  0  0  0  0  0  0  0  0  0  0  0
   25.7810    9.0650   19.6400 C   0  0  0  0  0  3  0  0  0  0  0  0
   23.6570    7.8960   19.1690 C   0  0  0  0  0  0  0  0  0  0  0  0
   23.5560    7.6280   20.4400 N   0  0  0  0  0  0  0  0  0  0  0  0
   24.2450    7.9460   21.0660 H   0  0  0  0  0  0  0  0  0  0  0  0
   22.7220    7.4580   18.3590 N   0  0  0  0  0  0  0  0  0  0  0  0
   22.6470    6.4950   18.1700 H   0  0  0  0  0  0  0  0  0  0  0  0
   22.0960    8.0930   17.9420 H   0  0  0  0  0  0  0  0  0  0  0  0
   28.8990   10.9980   19.6550 C   0  0  0  0  0  2  0  0  0  0  0  0
   28.8910   12.4560   20.0620 C   0  0  0  0  0  2  0  0  0  0  0  0
   28.9940   13.2940   18.8080 C   0  0  0  0  0  0  0  0  0  0  0  0
   28.5390   14.6070   18.8480 C   0  0  0  0  0  3  0  0  0  0  0  0
   28.6750   15.4180   17.7180 C   0  0  0  0  0  3  0  0  0  0  0  0
   29.2060   14.9160   16.5130 C   0  0  0  0  0  0  0  0  0  0  0  0
   29.6360   13.5790   16.4730 C   0  0  0  0  0  3  0  0  0  0  0  0
   29.5500   12.7850   17.6210 C   0  0  0  0  0  3  0  0  0  0  0  0
   29.2670   15.8190   15.2860 C   0  0  0  0  0  0  0  0  0  0  0  0
   29.5940   15.3180   14.1110 N   0  0  0  0  0  0  0  0  0  0  0  0
   29.8110   14.3620   14.0270 H   0  0  0  0  0  0  0  0  0  0  0  0
   28.9800   17.1220   15.3470 N   0  0  0  0  0  0  0  0  0  0  0  0
   28.3090   17.4500   15.9900 H   0  0  0  0  0  0  0  0  0  0  0  0
   29.4400   17.7550   14.7500 H   0  0  0  0  0  0  0  0  0  0  0  0
   27.1320   10.8660   21.5090 C   0  0  0  0  0  2  0  0  0  0  0  0
   27.7860   10.6430   22.8850 C   0  0  0  0  0  0  0  0  0  0  0  0
   28.1240   11.6050   23.5760 O   0  0  0  0  0  0  0  0  0  0  0  0
   27.9270    9.3460   23.3300 O   0  0  0  0  0  0  0  0  0  0  0  0
   28.6490    8.9430   24.4890 C   0  0  0  0  0  1  0  0  0  0  0  0
  1 14  1  6  0  0  0
  1 28  1  0  0  0  0
  2  7  1  0  0  0  0
  2  1  1  0  0  0  0
  3  2  2  0  0  0  0
  4  5  2  0  0  0  0
  4  3  1  0  0  0  0
  5  6  1  0  0  0  0
  6  8  1  0  0  0  0
  6  7  2  0  0  0  0
  8  9  2  0  0  0  0
  9 10  1  0  0  0  0
 11  8  1  0  0  0  0
 12 11  1  0  0  0  0
 13 11  1  0  0  0  0
 14 15  1  0  0  0  0
 16 17  1  0  0  0  0
 16 15  1  0  0  0  0
 18 17  2  0  0  0  0
 19 18  1  0  0  0  0
 20 19  2  0  0  0  0
 20 21  1  0  0  0  0
 21 16  2  0  0  0  0
 22 25  1  0  0  0  0
 22 19  1  0  0  0  0
 23 22  2  0  0  0  0
 24 23  1  0  0  0  0
 25 26  1  0  0  0  0
 27 25  1  0  0  0  0
 28 29  1  0  0  0  0
 29 31  1  0  0  0  0
 29 30  2  0  0  0  0
 31 32  1  0  0  0  0
M  END
>  <Pose>
6

>  <Score>
-6.607

$$$$
1AZ8_lig_vina_out.pdbqt
 OpenBabel05312217063D

 32 33  0  0  1  0  0  0  0  0999 V2000
   31.6710    9.5740   18.5130 C   0  0  1  0  0  3  0  0  0  0  0  0
   33.0630    9.8020   18.1400 C   0  0  0  0  0  0  0  0  0  0  0  0
   33.5120    9.9860   16.8190 C   0  0  0  0  0  3  0  0  0  0  0  0
   34.8680   10.1960   16.5650 C   0  0  0  0  0  3  0  0  0  0  0  0
   35.7560   10.2170   17.6340 C   0  0  0  0  0  3  0  0  0  0  0  0
   35.2900   10.0780   18.9450 C   0  0  0  0  0  0  0  0  0  0  0  0
   33.9520    9.8650   19.1950 C   0  0  0  0  0  3  0  0  0  0  0  0
   36.2360   10.1220   20.0980 C   0  0  0  0  0  0  0  0  0  0  0  0
   35.9940   10.9690   21.0560 N   0  0  0  0  0  0  0  0  0  0  0  0
   35.1900   11.5360   21.0210 H   0  0  0  0  0  0  0  0  0  0  0  0
   37.3170    9.3800   20.1740 N   0  0  0  0  0  0  0  0  0  0  0  0
   38.1300    9.6440   19.6870 H   0  0  0  0  0  0  0  0  0  0  0  0
   37.3120    8.5600   20.7180 H   0  0  0  0  0  0  0  0  0  0  0  0
   30.8720   10.7280   17.9380 C   0  0  0  0  0  2  0  0  0  0  0  0
   29.9880   11.4280   18.9480 C   0  0  0  0  0  2  0  0  0  0  0  0
   29.5350   12.7380   18.3450 C   0  0  0  0  0  0  0  0  0  0  0  0
   30.0140   13.0910   17.0870 C   0  0  0  0  0  3  0  0  0  0  0  0
   29.5660   14.2690   16.4850 C   0  0  0  0  0  3  0  0  0  0  0  0
   28.6860   15.1460   17.1500 C   0  0  0  0  0  0  0  0  0  0  0  0
   28.2320   14.7970   18.4330 C   0  0  0  0  0  3  0  0  0  0  0  0
   28.6370   13.5900   19.0110 C   0  0  0  0  0  3  0  0  0  0  0  0
   28.2850   16.4560   16.4810 C   0  0  0  0  0  0  0  0  0  0  0  0
   29.0440   16.9760   15.5360 N   0  0  0  0  0  0  0  0  0  0  0  0
   29.8780   16.5260   15.2710 H   0  0  0  0  0  0  0  0  0  0  0  0
   27.1640   17.1060   16.8040 N   0  0  0  0  0  0  0  0  0  0  0  0
   27.2140   17.9960   17.2210 H   0  0  0  0  0  0  0  0  0  0  0  0
   26.2870   16.6940   16.6240 H   0  0  0  0  0  0  0  0  0  0  0  0
   31.1150    8.1820   18.1270 C   0  0  0  0  0  2  0  0  0  0  0  0
   30.0890    8.1410   16.9800 C   0  0  0  0  0  0  0  0  0  0  0  0
   28.8840    8.0830   17.2240 O   0  0  0  0  0  0  0  0  0  0  0  0
   30.5640    8.2240   15.6870 O   0  0  0  0  0  0  0  0  0  0  0  0
   30.6670    7.1380   14.7730 C   0  0  0  0  0  1  0  0  0  0  0  0
  1 14  1  6  0  0  0
  2  1  1  0  0  0  0
  2  7  1  0  0  0  0
  3  2  2  0  0  0  0
  4  3  1  0  0  0  0
  4  5  2  0  0  0  0
  5  6  1  0  0  0  0
  6  7  2  0  0  0  0
  6  8  1  0  0  0  0
  8 11  1  0  0  0  0
  8  9  2  0  0  0  0
 10  9  1  0  0  0  0
 11 13  1  0  0  0  0
 12 11  1  0  0  0  0
 14 15  1  0  0  0  0
 16 15  1  0  0  0  0
 16 21  1  0  0  0  0
 17 16  2  0  0  0  0
 18 17  1  0  0  0  0
 18 19  2  0  0  0  0
 19 20  1  0  0  0  0
 20 21  2  0  0  0  0
 22 25  1  0  0  0  0
 22 19  1  0  0  0  0
 23 22  2  0  0  0  0
 24 23  1  0  0  0  0
 25 26  1  0  0  0  0
 27 25  1  0  0  0  0
 28  1  1  0  0  0  0
 29 30  2  0  0  0  0
 29 28  1  0  0  0  0
 31 29  1  0  0  0  0
 32 31  1  0  0  0  0
M  END
>  <Pose>
7

>  <Score>
-6.537

$$$$
1AZ8_lig_vina_out.pdbqt
 OpenBabel05312217063D

 32 33  0  0  1  0  0  0  0  0999 V2000
   25.9330   10.1160   18.2970 C   0  0  1  0  0  3  0  0  0  0  0  0
   27.2590   10.6510   18.5860 C   0  0  0  0  0  0  0  0  0  0  0  0
   28.3950    9.8620   18.8510 C   0  0  0  0  0  3  0  0  0  0  0  0
   29.6210   10.4710   19.1180 C   0  0  0  0  0  3  0  0  0  0  0  0
   29.6950   11.8590   19.1200 C   0  0  0  0  0  3  0  0  0  0  0  0
   28.5700   12.6290   18.8100 C   0  0  0  0  0  0  0  0  0  0  0  0
   27.3580   12.0280   18.5520 C   0  0  0  0  0  3  0  0  0  0  0  0
   28.6500   14.1190   18.7880 C   0  0  0  0  0  0  0  0  0  0  0  0
   28.8760   14.7030   17.6470 N   0  0  0  0  0  0  0  0  0  0  0  0
   28.9590   14.1650   16.8270 H   0  0  0  0  0  0  0  0  0  0  0  0
   28.5450   14.8640   19.8640 N   0  0  0  0  0  0  0  0  0  0  0  0
   27.7010   15.3310   20.0580 H   0  0  0  0  0  0  0  0  0  0  0  0
   29.3100   14.9550   20.4760 H   0  0  0  0  0  0  0  0  0  0  0  0
   25.8650    9.9080   16.7960 C   0  0  0  0  0  2  0  0  0  0  0  0
   25.5730    8.4810   16.3840 C   0  0  0  0  0  2  0  0  0  0  0  0
   24.3230    8.4850   15.5340 C   0  0  0  0  0  0  0  0  0  0  0  0
   24.4070    8.0200   14.2270 C   0  0  0  0  0  3  0  0  0  0  0  0
   23.2540    7.9610   13.4400 C   0  0  0  0  0  3  0  0  0  0  0  0
   22.0120    8.4250   13.9210 C   0  0  0  0  0  0  0  0  0  0  0  0
   21.9430    8.9220   15.2330 C   0  0  0  0  0  3  0  0  0  0  0  0
   23.0870    8.9270   16.0370 C   0  0  0  0  0  3  0  0  0  0  0  0
   20.7980    8.4080   12.9990 C   0  0  0  0  0  0  0  0  0  0  0  0
   20.7290    7.5370   12.0110 N   0  0  0  0  0  0  0  0  0  0  0  0
   21.4680    6.9040   11.8600 H   0  0  0  0  0  0  0  0  0  0  0  0
   19.7700    9.2440   13.1610 N   0  0  0  0  0  0  0  0  0  0  0  0
   19.6430    9.9960   12.5380 H   0  0  0  0  0  0  0  0  0  0  0  0
   19.1380    9.1090   13.9040 H   0  0  0  0  0  0  0  0  0  0  0  0
   25.5480    8.8590   19.1150 C   0  0  0  0  0  2  0  0  0  0  0  0
   24.1990    8.9050   19.8570 C   0  0  0  0  0  0  0  0  0  0  0  0
   23.9910    9.7620   20.7160 O   0  0  0  0  0  0  0  0  0  0  0  0
   23.2300    7.9960   19.4900 O   0  0  0  0  0  0  0  0  0  0  0  0
   23.4660    6.6480   19.0990 C   0  0  0  0  0  1  0  0  0  0  0  0
  1 14  1  6  0  0  0
  1  2  1  0  0  0  0
  1 28  1  0  0  0  0
  2  3  1  0  0  0  0
  3  4  2  0  0  0  0
  4  5  1  0  0  0  0
  6  5  2  0  0  0  0
  7  2  2  0  0  0  0
  7  6  1  0  0  0  0
  8  6  1  0  0  0  0
  8 11  1  0  0  0  0
  9  8  2  0  0  0  0
 10  9  1  0  0  0  0
 11 12  1  0  0  0  0
 11 13  1  0  0  0  0
 15 14  1  0  0  0  0
 16 21  1  0  0  0  0
 16 15  1  0  0  0  0
 17 16  2  0  0  0  0
 18 19  2  0  0  0  0
 18 17  1  0  0  0  0
 19 20  1  0  0  0  0
 20 21  2  0  0  0  0
 22 25  1  0  0  0  0
 22 19  1  0  0  0  0
 23 22  2  0  0  0  0
 24 23  1  0  0  0  0
 25 27  1  0  0  0  0
 26 25  1  0  0  0  0
 28 29  1  0  0  0  0
 29 30  2  0  0  0  0
 31 29  1  0  0  0  0
 32 31  1  0  0  0  0
M  END
>  <Pose>
8

>  <Score>
-6.404

$$$$
1AZ8_lig_vina_out.pdbqt
 OpenBabel05312217063D

 32 33  0  0  1  0  0  0  0  0999 V2000
   27.9780    9.7740   19.8780 C   0  0  1  0  0  3  0  0  0  0  0  0
   28.0650    9.2210   18.5310 C   0  0  0  0  0  0  0  0  0  0  0  0
   29.2190    8.6200   17.9910 C   0  0  0  0  0  3  0  0  0  0  0  0
   29.2010    8.1220   16.6880 C   0  0  0  0  0  3  0  0  0  0  0  0
   28.0340    8.2330   15.9420 C   0  0  0  0  0  3  0  0  0  0  0  0
   26.8830    8.7910   16.5070 C   0  0  0  0  0  0  0  0  0  0  0  0
   26.9020    9.2880   17.7910 C   0  0  0  0  0  3  0  0  0  0  0  0
   25.6200    8.8910   15.7170 C   0  0  0  0  0  0  0  0  0  0  0  0
   24.5040    9.0580   16.3670 N   0  0  0  0  0  0  0  0  0  0  0  0
   24.5140    9.1430   17.3480 H   0  0  0  0  0  0  0  0  0  0  0  0
   25.5750    8.7820   14.4100 N   0  0  0  0  0  0  0  0  0  0  0  0
   24.7540    9.0240   13.9240 H   0  0  0  0  0  0  0  0  0  0  0  0
   26.3620    8.4570   13.9160 H   0  0  0  0  0  0  0  0  0  0  0  0
   29.0460   10.8460   19.9800 C   0  0  0  0  0  2  0  0  0  0  0  0
   28.5040   12.2320   20.2570 C   0  0  0  0  0  2  0  0  0  0  0  0
   28.7500   13.0840   19.0330 C   0  0  0  0  0  0  0  0  0  0  0  0
   28.2210   14.3700   19.0020 C   0  0  0  0  0  3  0  0  0  0  0  0
   28.4820   15.1960   17.9070 C   0  0  0  0  0  3  0  0  0  0  0  0
   29.2190   14.7350   16.7970 C   0  0  0  0  0  0  0  0  0  0  0  0
   29.7240   13.4240   16.8240 C   0  0  0  0  0  3  0  0  0  0  0  0
   29.5090   12.6180   17.9460 C   0  0  0  0  0  3  0  0  0  0  0  0
   29.4160   15.6510   15.5940 C   0  0  0  0  0  0  0  0  0  0  0  0
   30.1700   15.2630   14.5840 N   0  0  0  0  0  0  0  0  0  0  0  0
   30.6180   14.3870   14.6110 H   0  0  0  0  0  0  0  0  0  0  0  0
   28.8310   16.8480   15.5080 N   0  0  0  0  0  0  0  0  0  0  0  0
   29.0060   17.4270   14.7310 H   0  0  0  0  0  0  0  0  0  0  0  0
   28.2250   17.1520   16.2220 H   0  0  0  0  0  0  0  0  0  0  0  0
   26.5680   10.2620   20.2900 C   0  0  0  0  0  2  0  0  0  0  0  0
   25.9490    9.6100   21.5410 C   0  0  0  0  0  0  0  0  0  0  0  0
   26.5800    9.5690   22.5970 O   0  0  0  0  0  0  0  0  0  0  0  0
   24.6600    9.1300   21.4470 O   0  0  0  0  0  0  0  0  0  0  0  0
   23.9660    8.8560   20.2340 C   0  0  0  0  0  1  0  0  0  0  0  0
  1 14  1  6  0  0  0
  1 28  1  0  0  0  0
  2  1  1  0  0  0  0
  3  2  1  0  0  0  0
  4  3  2  0  0  0  0
  5  6  2  0  0  0  0
  5  4  1  0  0  0  0
  6  7  1  0  0  0  0
  7  2  2  0  0  0  0
  8  9  2  0  0  0  0
  8  6  1  0  0  0  0
  9 10  1  0  0  0  0
 11  8  1  0  0  0  0
 12 11  1  0  0  0  0
 13 11  1  0  0  0  0
 14 15  1  0  0  0  0
 16 15  1  0  0  0  0
 17 16  1  0  0  0  0
 18 17  2  0  0  0  0
 19 20  2  0  0  0  0
 19 18  1  0  0  0  0
 20 21  1  0  0  0  0
 21 16  2  0  0  0  0
 22 19  1  0  0  0  0
 23 24  1  0  0  0  0
 23 22  2  0  0  0  0
 25 22  1  0  0  0  0
 25 27  1  0  0  0  0
 26 25  1  0  0  0  0
 28 29  1  0  0  0  0
 29 30  2  0  0  0  0
 31 29  1  0  0  0  0
 32 31  1  0  0  0  0
M  END
>  <Pose>
9

>  <Score>
-6.358

$$$$
1AZ8_lig_vina_out.pdbqt
 OpenBabel05312217063D

 32 33  0  0  1  0  0  0  0  0999 V2000
   28.8190    9.8000   20.1180 C   0  0  1  0  0  3  0  0  0  0  0  0
   29.5680    9.5290   18.8950 C   0  0  0  0  0  0  0  0  0  0  0  0
   28.9790    9.2590   17.6460 C   0  0  0  0  0  3  0  0  0  0  0  0
   29.7830    9.0100   16.5340 C   0  0  0  0  0  3  0  0  0  0  0  0
   31.1640    9.0310   16.6860 C   0  0  0  0  0  3  0  0  0  0  0  0
   31.7360    9.3450   17.9220 C   0  0  0  0  0  0  0  0  0  0  0  0
   30.9420    9.5850   19.0220 C   0  0  0  0  0  3  0  0  0  0  0  0
   33.2190    9.3910   18.0860 C   0  0  0  0  0  0  0  0  0  0  0  0
   33.7770   10.5500   18.2860 N   0  0  0  0  0  0  0  0  0  0  0  0
   33.2200   11.3590   18.3540 H   0  0  0  0  0  0  0  0  0  0  0  0
   33.9880    8.3310   17.9980 N   0  0  0  0  0  0  0  0  0  0  0  0
   33.7660    7.5180   18.5070 H   0  0  0  0  0  0  0  0  0  0  0  0
   34.7880    8.3490   17.4240 H   0  0  0  0  0  0  0  0  0  0  0  0
   28.0360   11.0760   19.8750 C   0  0  0  0  0  2  0  0  0  0  0  0
   28.7630   12.3350   20.2970 C   0  0  0  0  0  2  0  0  0  0  0  0
   28.8800   13.2350   19.0880 C   0  0  0  0  0  0  0  0  0  0  0  0
   29.6830   12.8240   18.0300 C   0  0  0  0  0  3  0  0  0  0  0  0
   29.7620   13.6120   16.8790 C   0  0  0  0  0  3  0  0  0  0  0  0
   29.0970   14.8510   16.7890 C   0  0  0  0  0  0  0  0  0  0  0  0
   28.3130   15.2730   17.8760 C   0  0  0  0  0  3  0  0  0  0  0  0
   28.1890   14.4570   19.0040 C   0  0  0  0  0  3  0  0  0  0  0  0
   29.2740   15.7090   15.5410 C   0  0  0  0  0  0  0  0  0  0  0  0
   28.6030   16.8380   15.4130 N   0  0  0  0  0  0  0  0  0  0  0  0
   27.9780   17.1210   16.1180 H   0  0  0  0  0  0  0  0  0  0  0  0
   30.1090   15.3690   14.5570 N   0  0  0  0  0  0  0  0  0  0  0  0
   29.8400   14.6920   13.8940 H   0  0  0  0  0  0  0  0  0  0  0  0
   30.9940   15.7960   14.4930 H   0  0  0  0  0  0  0  0  0  0  0  0
   27.9480    8.6230   20.6200 C   0  0  0  0  0  2  0  0  0  0  0  0
   26.6130    8.9910   21.2940 C   0  0  0  0  0  0  0  0  0  0  0  0
   26.5940    9.4020   22.4550 O   0  0  0  0  0  0  0  0  0  0  0  0
   25.4620    8.8940   20.5410 O   0  0  0  0  0  0  0  0  0  0  0  0
   24.1520    9.2320   20.9850 C   0  0  0  0  0  1  0  0  0  0  0  0
  1 14  1  6  0  0  0
  1 28  1  0  0  0  0
  2  7  1  0  0  0  0
  2  1  1  0  0  0  0
  3  2  2  0  0  0  0
  4  5  2  0  0  0  0
  4  3  1  0  0  0  0
  5  6  1  0  0  0  0
  6  8  1  0  0  0  0
  6  7  2  0  0  0  0
  8  9  2  0  0  0  0
  9 10  1  0  0  0  0
 11  8  1  0  0  0  0
 11 12  1  0  0  0  0
 13 11  1  0  0  0  0
 14 15  1  0  0  0  0
 16 15  1  0  0  0  0
 17 16  2  0  0  0  0
 18 17  1  0  0  0  0
 19 18  2  0  0  0  0
 19 20  1  0  0  0  0
 20 21  2  0  0  0  0
 21 16  1  0  0  0  0
 22 19  1  0  0  0  0
 23 22  2  0  0  0  0
 23 24  1  0  0  0  0
 25 22  1  0  0  0  0
 26 25  1  0  0  0  0
 27 25  1  0  0  0  0
 28 29  1  0  0  0  0
 29 30  2  0  0  0  0
 31 32  1  0  0  0  0
 31 29  1  0  0  0  0
M  END
>  <Pose>
10

>  <Score>
-6.210

$$$$
